Circuit: * D:\Dropbox\Projects\calcpsu\cptipb8\model.asc

Direct Newton iteration for .op point succeeded.

Date: Wed Jan 17 12:40:41 2024
Total elapsed time: 0.066 seconds.

tnom = 27
temp = 27
method = modified trap
totiter = 9880
traniter = 9872
tranpoints = 3091
accept = 2239
rejected = 852
matrix size = 8
fillins = 5
solver = Normal
Matrix Compiler1: 572 bytes object code size  0.1/0.0/[0.0]
Matrix Compiler2: off  [0.0]/0.1/0.1

