Circuit: * D:\Dropbox\Projects\calcpsu\cptibp8\Draft1.asc

.OP point found by inspection.

Date: Mon Jan 22 14:28:17 2024
Total elapsed time: 0.053 seconds.

tnom = 27
temp = 27
method = modified trap
totiter = 18977
traniter = 18977
tranpoints = 6459
accept = 4532
rejected = 1927
matrix size = 9
fillins = 3
solver = Normal
Matrix Compiler1:      39 opcodes  0.1/[0.1]/0.1
Matrix Compiler2: off  [0.0]/0.1/0.0

