Circuit: * D:\Dropbox\Projects\calcpsu\cptibp8\model.asc

.OP point found by inspection.

Date: Wed Jan 17 20:26:33 2024
Total elapsed time: 0.126 seconds.

tnom = 27
temp = 27
method = modified trap
totiter = 10674
traniter = 10674
tranpoints = 3198
accept = 2268
rejected = 930
matrix size = 9
fillins = 5
solver = Normal
Matrix Compiler1:      35 opcodes  0.1/[0.1]/0.1
Matrix Compiler2: off  [0.1]/0.1/0.1

